    82
       -119.75782122
C          16.37679291126666    0.15800209666070   -0.94297483827308
C          15.73657192922848    0.82188661897469    0.09488407702563
C          14.35515313075017    0.78162191276014    0.20252989550176
C          13.58873380892568    0.07789720155499   -0.72965983796767
C          14.24356321898982   -0.58635040674588   -1.76980902783457
C          15.62520664214500   -0.54703244840026   -1.87346583380450
C          12.11880257554482    0.04174867998740   -0.62159421232164
C          11.31708948918215    0.09341447250486   -1.76442796628012
C           9.93725867895010    0.07088367352231   -1.66536263397480
C           9.30806460887193   -0.01154970130439   -0.42007404977415
C          10.11067218031437   -0.07105675464527    0.72225620304246
C          11.49087241376244   -0.04090487945949    0.62369050878856
C           7.83871766190731   -0.02853056008674   -0.31866011963919
C           7.05551022940169    0.73533257976703   -1.18828975580410
C           5.67532211004881    0.72617754173412   -1.09634129174608
C           5.02513768336939   -0.05206288718583   -0.13449020861238
C           5.80752710815699   -0.81898757375095    0.73297479547428
C           7.18874571991523   -0.80442744196024    0.64485770481758
C           3.55486933243171   -0.05968948954122   -0.04472601801704
C           2.85689689295601   -1.22761836187415    0.27431092844763
C           1.47445640884581   -1.23374009374303    0.34293671001626
C           0.73966087453774   -0.07235374715318    0.09156859857837
C           1.43746905964664    1.09749098315548   -0.22003562530138
C           2.81918570621704    1.10420752410781   -0.28527649907299
C          -0.73251834385112   -0.07562486481304    0.14619060427786
C          -1.47959377048205    0.66496795835384   -0.77354694007835
C          -2.86210506854025    0.66976287928605   -0.72475127633567
C          -3.54786252485221   -0.06454072663447    0.24644307704133
C          -2.80095273359354   -0.80805486257171    1.16395401596480
C          -1.41770225857096   -0.81420844379045    1.11417934114179
C          -5.01984658057517   -0.05104270566507    0.29749075635198
C          -5.74002721701765   -1.20349782901984    0.62232038980497
C          -7.12320805557170   -1.18798128779929    0.66129390266160
C          -7.83559560863099   -0.01985994580754    0.37777065431014
C          -7.11528778280159    1.13354980756116    0.05641360046985
C          -5.73251320094739    1.11792132423092    0.01704162486487
C          -9.30768987113918   -0.00218067425958    0.41752360185783
C         -10.03993422770442    0.74171795737349   -0.51140133518457
C         -11.42294400555987    0.76151708229670   -0.47299495640345
C         -12.12158114100692    0.04419731815769    0.50102873371065
C         -11.39005578907924   -0.69988688006672    1.42969550598208
C         -10.00722515674767   -0.72593084299466    1.38646539285952
C         -13.59460758961777    0.07389287919190    0.55043975517766
C         -14.26437782603800    0.10745320412535    1.77583842606052
C         -15.64929982327801    0.13841454078057    1.82195493620021
C         -16.38833381688388    0.13391841635099    0.64651588905417
C         -15.73261803149197    0.09935203174182   -0.57685054693400
C         -14.34766983115169    0.07091484778439   -0.62602501339352
H          17.45723656650820    0.19000730593314   -1.02652481792094
H          16.31698974912811    1.37747526652555    0.82344284483201
H          13.86556963606952    1.31933285854331    1.00719731890255
H          13.66882674215287   -1.15440044166131   -2.49322056661259
H          16.11894912164882   -1.07129362307139   -2.68450506784934
H          11.77736512187290    0.17095488568958   -2.74346183380049
H           9.34064964821054    0.10144546932199   -2.57060885641878
H           9.65077787975564   -0.12233984024433    1.70329498938960
H          12.08908992466886   -0.09817174363010    1.52654990320148
H           7.53201990562501    1.35947519706803   -1.93643777841528
H           5.09387720712353    1.31915971577954   -1.79383989586633
H           5.33185626126781   -1.42226524836862    1.49857796130310
H           7.76948076745014   -1.41897275069946    1.32429398593759
H           3.39983023103721   -2.15060965219468    0.44704710736973
H           0.95770773245399   -2.16015138012652    0.56951680654633
H           0.89298609012064    2.01951520917296   -0.39287321504831
H           3.33459430336275    2.03250735087258   -0.50650418771499
H          -0.97409138689545    1.22658088725023   -1.55161325866163
H          -3.41771140112270    1.23440496584074   -1.46560410642750
H          -3.30669382378754   -1.37020994372782    1.94157183743865
H          -0.86169941277637   -1.38154121187294    1.85277940222058
H          -5.21306718928594   -2.12989403128859    0.82372139786032
H          -7.65870250222159   -2.10255751300299    0.89197990849998
H          -7.64221353939493    2.06033799700163   -0.14343184415864
H          -5.19780232577405    2.03304974019359   -0.21315279362527
H          -9.52132674511961    1.29855021641811   -1.28437617833412
H         -11.96685098531324    1.35689746308469   -1.19822971632095
H         -11.90925394795536   -1.27884544969012    2.18573394483707
H          -9.46317983281953   -1.30125893831573    2.12767467274797
H         -13.69676677410659    0.12991875586138    2.69973308491930
H         -16.15529842550540    0.16883583730923    2.78082055294554
H         -17.47150270525825    0.15755980781781    0.68411145595848
H         -16.30404220948589    0.09209465770661   -1.49867198780451
H         -13.84603380186774    0.02627805781450   -1.58660271266098
